Circuit: * Z:\home\sietse\Radio\batradio\testopamp.asc

Instance "m:u1:65": Length shorter than recommended for a level 1 MOSFET.
Instance "m:u1:64": Length shorter than recommended for a level 1 MOSFET.
Instance "m:u1:62": Length shorter than recommended for a level 1 MOSFET.
Instance "m:u1:63": Length shorter than recommended for a level 1 MOSFET.
Instance "m:u1:61": Length shorter than recommended for a level 1 MOSFET.
Direct Newton iteration failed to find .op point.  (Use ".option noopiter" to skip.)
Starting Gmin stepping
Gmin = 10
vernier = 0.5
vernier = 0.25
Gmin = 3.42672
vernier = 0.125
vernier = 0.0625
vernier = 0.03125
vernier = 0.015625
Gmin = 3.29712
vernier = 0.0078125
vernier = 0.00390625
vernier = 0.00195313
vernier = 0.000976563
Gmin = 3.28349
vernier = 0.000488281
Gmin = 0
Gmin stepping failed

Starting source stepping with srcstepmethod=0
Source Step = 3.0303%
Source Step = 33.3333%
Source Step = 63.6364%
Source Step = 93.9394%
Source stepping succeeded in finding the operating point.


Date: Fri Feb 01 23:19:19 2019
Total elapsed time: 0.148 seconds.

tnom = 27
temp = 27
method = trap
totiter = 1787
traniter = 0
tranpoints = 0
accept = 0
rejected = 0
matrix size = 156
fillins = 322
solver = Normal
Matrix Compiler1:    1128 opcodes
Matrix Compiler2: 18.10 KB object code size  1.8/2.6/[1.6]

